#============================================== 
#| Ryan's Auto-Generated MITgcm data.pkg file | 
#============================================== 
 &PACKAGES
  usediagnostics=.TRUE.,
  useLayers=.TRUE.,
  useRBCS=.TRUE.,
  usePTRACERS=.TRUE.,
  useMNC=.TRUE.,
  useKPP=.TRUE.,
 &
